Circuit: * Z:\home\jhbruhn\eurorack\eurorack-dev-environment\eurorack-modules\stereo_mix\hardware_design\pcb\simulation\Draft4.asc

Instance "m:u1:6": Length shorter than recommended for a level 2 MOSFET.
Instance "m:u1:5": Length shorter than recommended for a level 2 MOSFET.
Direct Newton iteration failed to find .op point.  (Use ".option noopiter" to skip.)
Starting Gmin stepping
Gmin = 10
Gmin = 1.07374
Gmin = 0.115292
Gmin = 0.0123794
Gmin = 0.00132923
Gmin = 0.000142725
Gmin = 1.5325e-005
Gmin = 1.6455e-006
Gmin = 1.76685e-007
Gmin = 1.89714e-008
Gmin = 2.03704e-009
Gmin = 2.18725e-010
Gmin = 2.34854e-011
Gmin = 2.52173e-012
Gmin = 2.70769e-013
Gmin = 0
Gmin stepping succeeded in finding the operating point.


Date: Sat Mar 14 19:22:02 2020
Total elapsed time: 0.109 seconds.

tnom = 27
temp = 27
method = modified trap
totiter = 2512
traniter = 2090
tranpoints = 1046
accept = 1046
rejected = 0
matrix size = 43
fillins = 28
solver = Normal
Matrix Compiler1: 3.38 KB object code size  0.9/0.4/[0.2]
Matrix Compiler2: 4.15 KB object code size  0.5/0.6/[0.3]

