Circuit: * Z:\home\jhbruhn\eurorack\eurorack-dev-environment\eurorack-modules\stereo_mix\simulation\digital_tests.asc

WARNING: Less than two connections to node N006.  This node is used by V6.
Direct Newton iteration failed to find .op point.  (Use ".option noopiter" to skip.)
Starting Gmin stepping
Increasing initial diagonal Gmin to 100
Gmin = 100
vernier = 0.5
vernier = 0.25
Gmin = 34.2672
vernier = 0.125
vernier = 0.0625
vernier = 0.03125
vernier = 0.015625
Gmin = 33.0995
vernier = 0.0078125
vernier = 0.00390625
vernier = 0.00195313
Gmin = 32.9705
vernier = 0.000976563
vernier = 0.000488281
Gmin = 0
Gmin stepping failed

Starting source stepping with srcstepmethod=0
Source Step = 3.0303%
vernier = 0.25
Source Step = 0.0177557%
Source Step = 0.0473485%
Source Step = 0.0769413%
Source Step = 0.106534%
Source Step = 0.136127%
Source Step = 0.16572%
vernier = 0.00146484
Source Step = 0.208629%
Source Step = 0.253018%
Source Step = 0.297408%
Source Step = 0.341797%
Source Step = 0.386186%
vernier = 0.00219727
Source Step = 0.448331%
Source Step = 0.514915%
Source Step = 0.581499%
Source Step = 0.648082%
Source Step = 0.714666%
vernier = 0.0032959
Source Step = 0.804554%
Source Step = 0.90443%
Source Step = 1.00431%
Source Step = 1.10418%
Source Step = 1.20406%
vernier = 0.00494385
Source Step = 1.3339%
Source Step = 1.48371%
Source Step = 1.63352%
Source Step = 1.78334%
Source Step = 1.93315%
vernier = 0.00741577
Source Step = 2.12042%
Source Step = 2.34514%
Source Step = 2.56986%
Source Step = 2.79458%
Source Step = 2.96312%
Source Step = 3.0193%
Starting source stepping with srcstepmethod=1
Source Step = 3.0303%
Source Step = 7.48106%
Source stepping failed

Pseudo Transient succeeded in finding the operating point at 274.067 ms.
Heightened Def Con from 0.463185 to 0.463185

Date: Wed Nov 13 23:02:23 2019
Total elapsed time: 80.796 seconds.

tnom = 27
temp = 27
method = modified trap
totiter = 3586130
traniter = 3577585
tranpoints = 1609521
accept = 1147239
rejected = 462294
matrix size = 61
fillins = 90
solver = Normal
Thread vector: 14.0/12.0[3] 4.0/2.9[3] 4.0/2.7[3] 0.4/1.2[1]  2592/500
Matrix Compiler1: 8.46 KB object code size  2.5/1.4/[0.9]
Matrix Compiler2: 6.89 KB object code size  1.3/1.7/[0.5]

